xflr5 v6.62

 Calculated polar for: CLARK Y AIRFOIL

 1 1 Reynolds number fixed          Mach number fixed         

 xtrf =   1.000 (top)        1.000 (bottom)
 Mach =   0.000     Re =     0.500 e 6     Ncrit =   9.000

  alpha     CL        CD       CDp       Cm    Top Xtr Bot Xtr   Cpmin    Chinge    XCp    
 ------- -------- --------- --------- -------- ------- ------- -------- --------- ---------
  -5.000  -0.1386   0.01352   0.00739  -0.0902  0.8951  0.0395  -2.3322   0.0000   0.0000   0.0000  -0.4193
  -4.000  -0.0363   0.01094   0.00450  -0.0880  0.8615  0.0443  -2.0080   0.0000   0.0000   0.0000  -2.2244
  -3.000   0.0708   0.01001   0.00334  -0.0865  0.8243  0.0499  -1.5830   0.0000   0.0000   0.0000   1.4892
  -2.000   0.1789   0.00920   0.00244  -0.0853  0.7867  0.0720  -1.1746   0.0000   0.0000   0.0000   0.7304
  -1.000   0.2843   0.00813   0.00208  -0.0841  0.7478  0.3157  -0.7816   0.0000   0.0000   0.0000   0.5463
   0.000   0.3802   0.00672   0.00210  -0.0808  0.7113  0.7867  -0.7368   0.0000   0.0000   0.0000   0.4610
   1.000   0.5438   0.00674   0.00222  -0.0907  0.6669  1.0000  -0.8741   0.0000   0.0000   0.0000   0.4142
   2.000   0.6426   0.00709   0.00228  -0.0880  0.6186  1.0000  -0.9799   0.0000   0.0000   0.0000   0.3833
   3.000   0.7389   0.00761   0.00251  -0.0847  0.5554  1.0000  -1.0880   0.0000   0.0000   0.0000   0.3600
   4.000   0.8308   0.00851   0.00298  -0.0808  0.4634  1.0000  -1.2833   0.0000   0.0000   0.0000   0.3416
   5.000   0.9220   0.00974   0.00376  -0.0771  0.3711  1.0000  -1.5275   0.0000   0.0000   0.0000   0.3269
   6.000   1.0188   0.01078   0.00465  -0.0746  0.3303  1.0000  -1.7995   0.0000   0.0000   0.0000   0.3154
   7.000   1.1153   0.01181   0.00563  -0.0722  0.2915  1.0000  -2.1115   0.0000   0.0000   0.0000   0.3058
   8.000   1.2083   0.01299   0.00672  -0.0695  0.2408  1.0000  -2.7528   0.0000   0.0000   0.0000   0.2972
   9.000   1.2808   0.01546   0.00861  -0.0639  0.1337  1.0000  -3.4709   0.0000   0.0000   0.0000   0.2882
  10.000   1.3433   0.01804   0.01097  -0.0569  0.0837  1.0000  -4.2107   0.0000   0.0000   0.0000   0.2792
  11.000   1.3801   0.02231   0.01489  -0.0475  0.0239  1.0000  -4.8789   0.0000   0.0000   0.0000   0.2697
  12.000   1.4201   0.02683   0.01976  -0.0402  0.0171  1.0000  -5.6102   0.0000   0.0000   0.0000   0.2619
  13.000   1.4361   0.03398   0.02734  -0.0334  0.0141  1.0000  -6.2171   0.0000   0.0000   0.0000   0.2550
  14.000   1.4152   0.04614   0.04012  -0.0287  0.0125  1.0000  -6.5468   0.0000   0.0000   0.0000   0.2500
  15.000   1.3981   0.05990   0.05438  -0.0282  0.0117  1.0000  -6.9188   0.0000   0.0000   0.0000   0.2478


