xflr5 v6.62

 Calculated polar for: E387

 1 1 Reynolds number fixed          Mach number fixed         

 xtrf =   1.000 (top)        1.000 (bottom)
 Mach =   0.000     Re =     0.500 e 6     Ncrit =   9.000

  alpha     CL        CD       CDp       Cm    Top Xtr Bot Xtr   Cpmin    Chinge    XCp    
 ------- -------- --------- --------- -------- ------- ------- -------- --------- ---------
  -5.000  -0.1323   0.04076   0.03722  -0.0781  0.7851  0.0186  -1.9403   0.0000   0.0000   0.0000  -0.3474
  -4.000  -0.0416   0.03107   0.02668  -0.0819  0.7416  0.0355  -1.5622   0.0000   0.0000   0.0000  -1.7360
  -3.000   0.0599   0.02243   0.01725  -0.0832  0.7098  0.0576  -1.1963   0.0000   0.0000   0.0000   1.6476
  -2.000   0.1737   0.01035   0.00344  -0.0806  0.6836  0.0157  -1.4441   0.0000   0.0000   0.0000   0.7168
  -1.000   0.2866   0.00916   0.00172  -0.0799  0.6600  0.0149  -0.8715   0.0000   0.0000   0.0000   0.5289
   0.000   0.3969   0.00638   0.00186  -0.0801  0.6354  1.0000  -0.6439   0.0000   0.0000   0.0000   0.4509
   1.000   0.5076   0.00662   0.00186  -0.0799  0.6156  1.0000  -0.7174   0.0000   0.0000   0.0000   0.4057
   2.000   0.6180   0.00708   0.00213  -0.0798  0.5897  1.0000  -0.8017   0.0000   0.0000   0.0000   0.3767
   3.000   0.7253   0.00719   0.00192  -0.0789  0.5211  1.0000  -0.9368   0.0000   0.0000   0.0000   0.3554
   4.000   0.8312   0.00785   0.00219  -0.0782  0.4472  1.0000  -1.1565   0.0000   0.0000   0.0000   0.3398
   5.000   0.9247   0.01004   0.00326  -0.0762  0.2350  1.0000  -1.6757   0.0000   0.0000   0.0000   0.3272
   6.000   1.0048   0.01391   0.00583  -0.0726  0.0106  1.0000  -2.4157   0.0000   0.0000   0.0000   0.3160
   7.000   1.1008   0.01558   0.00832  -0.0704  0.0114  1.0000  -3.3493   0.0000   0.0000   0.0000   0.3064
   8.000   1.1668   0.02000   0.01345  -0.0635  0.0124  1.0000  -3.9184   0.0000   0.0000   0.0000   0.2956
   9.000   1.2191   0.02710   0.02111  -0.0548  0.0158  1.0000  -4.2918   0.0000   0.0000   0.0000   0.2849


