xflr5 v6.62

 Calculated polar for: NACA 4412

 1 1 Reynolds number fixed          Mach number fixed         

 xtrf =   1.000 (top)        1.000 (bottom)
 Mach =   0.000     Re =     0.500 e 6     Ncrit =   9.000

  alpha     CL        CD       CDp       Cm    Top Xtr Bot Xtr   Cpmin    Chinge    XCp    
 ------- -------- --------- --------- -------- ------- ------- -------- --------- ---------
  -5.000  -0.0552   0.01212   0.00610  -0.1036  0.8960  0.0399  -2.1751   0.0000   0.0000   0.0000  -1.6738
  -4.000   0.0453   0.01028   0.00392  -0.1016  0.8673  0.0394  -1.8431   0.0000   0.0000   0.0000   2.5333
  -3.000   0.1584   0.00923   0.00263  -0.1022  0.8091  0.0632  -1.4884   0.0000   0.0000   0.0000   0.9039
  -2.000   0.2640   0.00851   0.00218  -0.1016  0.7637  0.1425  -1.0876   0.0000   0.0000   0.0000   0.6381
  -1.000   0.3710   0.00841   0.00187  -0.1012  0.6718  0.2099  -0.7059   0.0000   0.0000   0.0000   0.5235
   0.000   0.4746   0.00849   0.00186  -0.1004  0.5940  0.2782  -0.7670   0.0000   0.0000   0.0000   0.4607
   1.000   0.5782   0.00791   0.00213  -0.1000  0.5595  0.5802  -0.8547   0.0000   0.0000   0.0000   0.4210
   2.000   0.6961   0.00769   0.00252  -0.1018  0.5018  1.0000  -0.9648   0.0000   0.0000   0.0000   0.3931
   3.000   0.8021   0.00801   0.00281  -0.1014  0.4910  1.0000  -1.1996   0.0000   0.0000   0.0000   0.3723
   4.000   0.9008   0.00879   0.00322  -0.0996  0.4344  1.0000  -1.5727   0.0000   0.0000   0.0000   0.3554
   5.000   1.0033   0.00947   0.00380  -0.0986  0.3926  1.0000  -1.9789   0.0000   0.0000   0.0000   0.3419
   6.000   1.0885   0.01124   0.00478  -0.0947  0.2690  1.0000  -2.3732   0.0000   0.0000   0.0000   0.3294
   7.000   1.1369   0.01602   0.00794  -0.0854  0.0441  1.0000  -2.6450   0.0000   0.0000   0.0000   0.3163
   8.000   1.2117   0.01802   0.01003  -0.0798  0.0379  1.0000  -3.0086   0.0000   0.0000   0.0000   0.3056
   9.000   1.2726   0.02055   0.01275  -0.0725  0.0346  1.0000  -3.3623   0.0000   0.0000   0.0000   0.2952
  10.000   1.3236   0.02364   0.01588  -0.0657  0.0143  1.0000  -4.1922   0.0000   0.0000   0.0000   0.2862


