xflr5 v6.62

 Calculated polar for: NACA 2414

 1 1 Reynolds number fixed          Mach number fixed         

 xtrf =   1.000 (top)        1.000 (bottom)
 Mach =   0.000     Re =     0.500 e 6     Ncrit =   9.000

  alpha     CL        CD       CDp       Cm    Top Xtr Bot Xtr   Cpmin    Chinge    XCp    
 ------- -------- --------- --------- -------- ------- ------- -------- --------- ---------
  -5.000  -0.2951   0.01027   0.00414  -0.0582  0.9244  0.1483  -1.8457   0.0000   0.0000   0.0000   0.0418
  -4.000  -0.1867   0.00933   0.00341  -0.0570  0.8905  0.2124  -1.4241   0.0000   0.0000   0.0000  -0.0684
  -3.000  -0.0783   0.00854   0.00281  -0.0559  0.8496  0.3004  -1.0642   0.0000   0.0000   0.0000  -0.4847
  -2.000   0.0288   0.00787   0.00239  -0.0545  0.7975  0.4205  -0.7870   0.0000   0.0000   0.0000   2.1740
  -1.000   0.1339   0.00729   0.00224  -0.0526  0.7414  0.5886  -0.5732   0.0000   0.0000   0.0000   0.6454
   0.000   0.2384   0.00703   0.00226  -0.0503  0.6812  0.7445  -0.6356   0.0000   0.0000   0.0000   0.4595
   1.000   0.3403   0.00712   0.00249  -0.0471  0.6178  0.8751  -0.7392   0.0000   0.0000   0.0000   0.3850
   2.000   0.4522   0.00764   0.00284  -0.0459  0.5580  0.9575  -0.8700   0.0000   0.0000   0.0000   0.3471
   3.000   0.6027   0.00830   0.00323  -0.0539  0.4995  0.9875  -1.0835   0.0000   0.0000   0.0000   0.3342
   4.000   0.7472   0.00883   0.00364  -0.0614  0.4451  1.0000  -1.3953   0.0000   0.0000   0.0000   0.3259
   5.000   0.8337   0.00941   0.00403  -0.0565  0.3911  1.0000  -1.7011   0.0000   0.0000   0.0000   0.3106
   6.000   0.9169   0.01036   0.00463  -0.0511  0.3160  1.0000  -2.0726   0.0000   0.0000   0.0000   0.2974
   7.000   0.9978   0.01175   0.00561  -0.0456  0.2309  1.0000  -2.5025   0.0000   0.0000   0.0000   0.2862
   8.000   1.0788   0.01349   0.00707  -0.0405  0.1578  1.0000  -2.9685   0.0000   0.0000   0.0000   0.2769
   9.000   1.1527   0.01566   0.00886  -0.0347  0.0992  1.0000  -3.4300   0.0000   0.0000   0.0000   0.2681
  10.000   1.2118   0.01814   0.01120  -0.0267  0.0631  1.0000  -3.8998   0.0000   0.0000   0.0000   0.2586
  11.000   1.2763   0.02035   0.01351  -0.0205  0.0526  1.0000  -4.5274   0.0000   0.0000   0.0000   0.2511
  12.000   1.3155   0.02440   0.01771  -0.0126  0.0383  1.0000  -5.0547   0.0000   0.0000   0.0000   0.2429
  13.000   1.3492   0.02936   0.02308  -0.0064  0.0340  1.0000  -5.5865   0.0000   0.0000   0.0000   0.2362
  14.000   1.3699   0.03645   0.03051  -0.0021  0.0312  1.0000  -6.0581   0.0000   0.0000   0.0000   0.2311
  15.000   1.3754   0.04575   0.04015  -0.0000  0.0288  1.0000  -6.4557   0.0000   0.0000   0.0000   0.2274


